/*--------------------------------*- C++ -*----------------------------------*\
| =========                 |                                                 |
| \\      /  F ield         | OpenFOAM: The Open Source CFD Toolbox           |
|  \\    /   O peration     | Version:  1.5                                   |
|   \\  /    A nd           | Web:      http://www.OpenFOAM.org               |
|    \\/     M anipulation  |                                                 |
\*---------------------------------------------------------------------------*/
FoamFile
{
    version     2.0;
    format      ascii;
    class       dictionary;
    object      controlDict;
}
// * * * * * * * * * * * * * * * * * * * * * * * * * * * * * * * * * * * * * //

application dieselFoam;

startFrom       latestTime;

startTime       0;

stopAt          endTime;

endTime         8000;

deltaT          1;

writeControl    timeStep;

writeInterval   50;

purgeWrite      2;

writeFormat     ascii;

writePrecision  6;

writeCompression uncompressed;

timeFormat      general;

timePrecision   6;

runTimeModifiable yes;

adjustTimeStep   off;

maxCo            0.4;

functions 
(
   massFlow
   {
      type patchMassFlow;
     functionObjectLibs
       (
         "libsimpleFunctionObjects.so"
       );
     verbose true;
     patches
       (
         inlet
         outlet
       );
     factor 1.0;
   }
);


// ************************************************************************* //
