/*--------------------------------*- C++ -*----------------------------------*\
| =========                 |                                                 |
| \\      /  F ield         | OpenFOAM: The Open Source CFD Toolbox           |
|  \\    /   O peration     | Version:  1.7.x                                 |
|   \\  /    A nd           | Web:      www.OpenFOAM.com                      |
|    \\/     M anipulation  |                                                 |
\*---------------------------------------------------------------------------*/
FoamFile
{
    version     2.0;
    format      ascii;
    class       volScalarField;
    location    "0";
    object      k;
}
// * * * * * * * * * * * * * * * * * * * * * * * * * * * * * * * * * * * * * //

dimensions      [0 2 -2 0 0 0 0];

internalField   uniform 0.0018;

boundaryField
{
    outlet
    {
        type            zeroGradient;
    }
    walls
    {
        type            kqRWallFunction;
        value           uniform 0.0018;
    }
    nozzle
    {
    	type            timeVaryingMappedFixedValue;
		setAverage      off;
/*    
        type            fixedValue;
        value           uniform 1.71;
*/        
    }
    coflow
    {

        type            fixedValue;
        value           uniform 0.04;
    }
    front
    {
        type            wedge;
    }
    back
    {
		type			wedge;
	}
}


// ************************************************************************* //
