FoamFile
{
	version     2.0;
	format      ascii;
	class       dictionary;
	object      blockMeshDict;
}

convertToMeters 1.0;

vertices
(
	(-0.003 -0.003 0)
	( 0.003 -0.003 0)
	(-0.003  0.003 0)
	( 0.003  0.003 0)
	( -0.0241421356237 -0.0241421356237 0)
	( 0.0241421356237 -0.0241421356237 0)
	( -0.0241421356237 0.0241421356237 0)
	( 0.0241421356237 0.0241421356237 0)
	( -0.0226274169979695 -0.0226274169979695 0)
	( 0.0226274169979695 -0.0226274169979695 0)
	( -0.0226274169979695 0.0226274169979695 0)
	( 0.0226274169979695 0.0226274169979695 0)
	( -0.141421356237 -0.141421356237 0)
	( 0.141421356237 -0.141421356237 0)
	( -0.141421356237 0.141421356237 0)
	( 0.141421356237 0.141421356237 0)
	(-0.003 -0.003 1.5)
	( 0.003 -0.003 1.5)
	(-0.003  0.003 1.5)
	( 0.003  0.003 1.5)
	( -0.0241421356237 -0.0241421356237 1.5)
	( 0.0241421356237 -0.0241421356237 1.5)
	( -0.0241421356237 0.0241421356237 1.5)
	( 0.0241421356237 0.0241421356237 1.5)
	( -0.0226274169979695 -0.0226274169979695 1.5)
	( 0.0226274169979695 -0.0226274169979695 1.5)
	( -0.0226274169979695 0.0226274169979695 1.5)
	( 0.0226274169979695 0.0226274169979695 1.5)
	( -0.141421356237 -0.141421356237 1.5)
	( 0.141421356237 -0.141421356237 1.5)
	( -0.141421356237 0.141421356237 1.5)
	( 0.141421356237 0.141421356237 1.5)
	(-0.003 -0.003 2)
	( 0.003 -0.003 2)
	(-0.003  0.003 2)
	( 0.003  0.003 2)
	( -0.0241421356237 -0.0241421356237 2)
	( 0.0241421356237 -0.0241421356237 2)
	( -0.0241421356237 0.0241421356237 2)
	( 0.0241421356237 0.0241421356237 2)
	( -0.0226274169979695 -0.0226274169979695 2)
	( 0.0226274169979695 -0.0226274169979695 2)
	( -0.0226274169979695 0.0226274169979695 2)
	( 0.0226274169979695 0.0226274169979695 2)
);

blocks
(
	hex (0 1 3 2 16 17 19 18) (15 15 200) simpleGrading (1 1 1)
	hex (4 5 1 0 20 21 17 16) (15 10 200) simpleGrading (1 1 1)
	hex (1 5 7 3 17 21 23 19) (10 15 200) simpleGrading (1 1 1)
	hex (2 3 7 6 18 19 23 22) (15 10 200) simpleGrading (1 1 1)
	hex (4 0 2 6 20 16 18 22) (10 15 200) simpleGrading (1 1 1)
	hex (8 9 5 4 24 25 21 20) (15 15 200) simpleGrading (1 1 1)
	hex (5 9 11 7 21 25 27 23) (15 15 200) simpleGrading (1 1 1)
	hex (6 7 11 10 22 23 27 26) (15 15 200) simpleGrading (1 1 1)
	hex (8 4 6 10 24 20 22 26) (15 15 200) simpleGrading (1 1 1)
	hex (12 13 9 8 28 29 25 24) (15 30 200) simpleGrading (1 1 1)
	hex (9 13 15 11 25 29 31 27) (30 15 200) simpleGrading (1 1 1)
	hex (10 11 15 14 26 27 31 30) (15 30 200) simpleGrading (1 1 1)
	hex (12 8 10 14 28 24 26 30) (30 15 200) simpleGrading (1 1 1)
	hex (24 25 21 20 40 41 37 36) (15 15 100) simpleGrading (1 1 1)
	hex (21 25 27 23 37 41 43 39) (15 15 100) simpleGrading (1 1 1)
	hex (22 23 27 26 38 39 43 42) (15 15 100) simpleGrading (1 1 1)
	hex (24 20 22 26 40 36 38 42) (15 15 100) simpleGrading (1 1 1)
);

edges
(
	arc 5 7 (0.02 0 0)
	arc 21 23 (0.02 0 1.5)
	arc 37 39 (0.02 0 2)
	arc 9 11 (0.032 0 0)
	arc 25 27 (0.032 0 1.5)
	arc 41 43 (0.032 0 2)
	arc 13 15 (0.1 0 0)
	arc 29 31 (0.1 0 1.5)
	arc 7 6 (0 0.02 0)
	arc 23 22 (0 0.02 1.5)
	arc 39 38 (0 0.02 2)
	arc 11 10 (0 0.032 0)
	arc 27 26 (0 0.032 1.5)
	arc 43 42 (0 0.032 2)
	arc 15 14 (0 0.1 0)
	arc 31 30 (0 0.1 1.5)
	arc 6 4 (-0.02 0 0)
	arc 22 20 (-0.02 0 1.5)
	arc 38 36 (-0.02 0 2)
	arc 10 8 (-0.032 0 0)
	arc 26 24 (-0.032 0 1.5)
	arc 42 40 (-0.032 0 2)
	arc 14 12 (-0.1 0 0)
	arc 30 28 (-0.1 0 1.5)
	arc 4 5 (0 -0.02 0)
	arc 20 21 (0 -0.02 1.5)
	arc 36 37 (0 -0.02 2)
	arc 8 9 (0 -0.032 0)
	arc 24 25 (0 -0.032 1.5)
	arc 40 41 (0 -0.032 2)
	arc 12 13 (0 -0.1 0)
	arc 28 29 (0 -0.1 1.5)
);

patches
(
	patch inlet
	(
		(40 41 37 36)
		(37 41 43 39)
		(38 39 43 42)
		(40 36 38 42)
	)
	patch outlet
	(
		(0 2 3 1)
		(4 0 1 5)
		(1 3 7 5)
		(2 6 7 3)
		(4 6 2 0)
		(8 4 5 9)
		(5 7 11 9)
		(6 10 11 7)
		(8 10 6 4)
		(12 8 9 13)
		(9 11 15 13)
		(10 14 15 11)
		(12 14 10 8)
	)
	wall walls
	(
		(16 17 19 18)
		(20 21 17 16)
		(17 21 23 19)
		(18 19 23 22)
		(20 16 18 22)
		(36 37 21 20)
		(37 39 23 21)
		(39 38 22 23)
		(38 36 20 22)
		(41 40 24 25)
		(43 41 25 27)
		(42 43 27 26)
		(40 42 26 24)
		(28 29 25 24)
		(25 29 31 27)
		(26 27 31 30)
		(28 24 26 30)
		(12 13 29 28)
		(13 15 31 29)
		(15 14 30 31)
		(14 12 28 30)
	)
);

mergePatchPairs
(
);
