/*---------------------------------------------------------------------------*\ 
| =========                 |                                                 | 
| \      /  F ield         | OpenFOAM: The Open Source CFD Toolbox           | 
|  \    /   O peration     | Version:  1.6                                   | 
|   \  /    A nd           | Web:      http://www.openfoam.org               | 
|    \/     M anipulation  |                                                 | 
\*---------------------------------------------------------------------------*/ 

FoamFile 
{    version         2.0; 
	format          ascii; 

    class           vectorAverageField; 
    object          values;
}
 // * * * * * * * * * * * * * * * * * * * * * * * * * * * * * * * * * * * * * // 


(25.9525425743 0 0)
201
(
		 (29.5412 0.0 0.0)
		 (29.5396 0.0 0.0)
		 (29.5379 0.0 0.0)
		 (29.5363 0.0 0.0)
		 (29.5347 0.0 0.0)
		 (29.533 0.0 0.0)
		 (29.5176 0.0 0.0)
		 (29.5092 0.0 0.0)
		 (29.4976 0.0 0.0)
		 (29.4859 0.0 0.0)
		 (29.4742 0.0 0.0)
		 (29.4577 0.0 0.0)
		 (29.4411 0.0 0.0)
		 (29.4246 0.0 0.0)
		 (29.4047 0.0 0.0)
		 (29.3832 0.0 0.0)
		 (29.3617 0.0 0.0)
		 (29.3384 0.0 0.0)
		 (29.3118 0.0 0.0)
		 (29.2852 0.0 0.0)
		 (29.2586 0.0 0.0)
		 (29.2267 0.0 0.0)
		 (29.1949 0.0 0.0)
		 (29.163 0.0 0.0)
		 (29.1275 0.0 0.0)
		 (29.0903 0.0 0.0)
		 (29.053 0.0 0.0)
		 (29.0139 0.0 0.0)
		 (28.971 0.0 0.0)
		 (28.9282 0.0 0.0)
		 (28.8853 0.0 0.0)
		 (28.8367 0.0 0.0)
		 (28.788 0.0 0.0)
		 (28.7393 0.0 0.0)
		 (28.6866 0.0 0.0)
		 (28.6319 0.0 0.0)
		 (28.5772 0.0 0.0)
		 (28.5204 0.0 0.0)
		 (28.4593 0.0 0.0)
		 (28.3983 0.0 0.0)
		 (28.3373 0.0 0.0)
		 (28.2696 0.0 0.0)
		 (28.2019 0.0 0.0)
		 (28.1342 0.0 0.0)
		 (28.0619 0.0 0.0)
		 (27.9871 0.0 0.0)
		 (27.9124 0.0 0.0)
		 (27.8352 0.0 0.0)
		 (27.7529 0.0 0.0)
		 (27.6707 0.0 0.0)
		 (27.5884 0.0 0.0)
		 (27.498 0.0 0.0)
		 (27.4077 0.0 0.0)
		 (27.3173 0.0 0.0)
		 (27.221 0.0 0.0)
		 (27.1218 0.0 0.0)
		 (27.0226 0.0 0.0)
		 (26.9201 0.0 0.0)
		 (26.811 0.0 0.0)
		 (26.7019 0.0 0.0)
		 (26.5929 0.0 0.0)
		 (26.4727 0.0 0.0)
		 (26.3526 0.0 0.0)
		 (26.2325 0.0 0.0)
		 (26.1038 0.0 0.0)
		 (25.971 0.0 0.0)
		 (25.8381 0.0 0.0)
		 (25.7003 0.0 0.0)
		 (25.5525 0.0 0.0)
		 (25.4048 0.0 0.0)
		 (25.257 0.0 0.0)
		 (25.0913 0.0 0.0)
		 (24.9256 0.0 0.0)
		 (24.7599 0.0 0.0)
		 (24.5793 0.0 0.0)
		 (24.3914 0.0 0.0)
		 (24.2034 0.0 0.0)
		 (24.0059 0.0 0.0)
		 (23.7892 0.0 0.0)
		 (23.5726 0.0 0.0)
		 (23.3559 0.0 0.0)
		 (23.1005 0.0 0.0)
		 (22.845 0.0 0.0)
		 (22.5896 0.0 0.0)
		 (22.2968 0.0 0.0)
		 (21.9854 0.0 0.0)
		 (21.674 0.0 0.0)
		 (21.3331 0.0 0.0)
		 (20.9332 0.0 0.0)
		 (20.5333 0.0 0.0)
		 (20.1334 0.0 0.0)
		 (19.5722 0.0 0.0)
		 (19.011 0.0 0.0)
		 (18.4499 0.0 0.0)
		 (17.652 0.0 0.0)
		 (16.7359 0.0 0.0)
		 (15.8197 0.0 0.0)
		 (14.7142 0.0 0.0)
		 (13.2298 0.0 0.0)
		 (11.7454 0.0 0.0)
		 (10.261 0.0 0.0)
		 (29.5396 0.0 0.0)
		 (29.5379 0.0 0.0)
		 (29.5363 0.0 0.0)
		 (29.5347 0.0 0.0)
		 (29.533 0.0 0.0)
		 (29.5176 0.0 0.0)
		 (29.5092 0.0 0.0)
		 (29.4976 0.0 0.0)
		 (29.4859 0.0 0.0)
		 (29.4742 0.0 0.0)
		 (29.4577 0.0 0.0)
		 (29.4411 0.0 0.0)
		 (29.4246 0.0 0.0)
		 (29.4047 0.0 0.0)
		 (29.3832 0.0 0.0)
		 (29.3617 0.0 0.0)
		 (29.3384 0.0 0.0)
		 (29.3118 0.0 0.0)
		 (29.2852 0.0 0.0)
		 (29.2586 0.0 0.0)
		 (29.2267 0.0 0.0)
		 (29.1949 0.0 0.0)
		 (29.163 0.0 0.0)
		 (29.1275 0.0 0.0)
		 (29.0903 0.0 0.0)
		 (29.053 0.0 0.0)
		 (29.0139 0.0 0.0)
		 (28.971 0.0 0.0)
		 (28.9282 0.0 0.0)
		 (28.8853 0.0 0.0)
		 (28.8367 0.0 0.0)
		 (28.788 0.0 0.0)
		 (28.7393 0.0 0.0)
		 (28.6866 0.0 0.0)
		 (28.6319 0.0 0.0)
		 (28.5772 0.0 0.0)
		 (28.5204 0.0 0.0)
		 (28.4593 0.0 0.0)
		 (28.3983 0.0 0.0)
		 (28.3373 0.0 0.0)
		 (28.2696 0.0 0.0)
		 (28.2019 0.0 0.0)
		 (28.1342 0.0 0.0)
		 (28.0619 0.0 0.0)
		 (27.9871 0.0 0.0)
		 (27.9124 0.0 0.0)
		 (27.8352 0.0 0.0)
		 (27.7529 0.0 0.0)
		 (27.6707 0.0 0.0)
		 (27.5884 0.0 0.0)
		 (27.498 0.0 0.0)
		 (27.4077 0.0 0.0)
		 (27.3173 0.0 0.0)
		 (27.221 0.0 0.0)
		 (27.1218 0.0 0.0)
		 (27.0226 0.0 0.0)
		 (26.9201 0.0 0.0)
		 (26.811 0.0 0.0)
		 (26.7019 0.0 0.0)
		 (26.5929 0.0 0.0)
		 (26.4727 0.0 0.0)
		 (26.3526 0.0 0.0)
		 (26.2325 0.0 0.0)
		 (26.1038 0.0 0.0)
		 (25.971 0.0 0.0)
		 (25.8381 0.0 0.0)
		 (25.7003 0.0 0.0)
		 (25.5525 0.0 0.0)
		 (25.4048 0.0 0.0)
		 (25.257 0.0 0.0)
		 (25.0913 0.0 0.0)
		 (24.9256 0.0 0.0)
		 (24.7599 0.0 0.0)
		 (24.5793 0.0 0.0)
		 (24.3914 0.0 0.0)
		 (24.2034 0.0 0.0)
		 (24.0059 0.0 0.0)
		 (23.7892 0.0 0.0)
		 (23.5726 0.0 0.0)
		 (23.3559 0.0 0.0)
		 (23.1005 0.0 0.0)
		 (22.845 0.0 0.0)
		 (22.5896 0.0 0.0)
		 (22.2968 0.0 0.0)
		 (21.9854 0.0 0.0)
		 (21.674 0.0 0.0)
		 (21.3331 0.0 0.0)
		 (20.9332 0.0 0.0)
		 (20.5333 0.0 0.0)
		 (20.1334 0.0 0.0)
		 (19.5722 0.0 0.0)
		 (19.011 0.0 0.0)
		 (18.4499 0.0 0.0)
		 (17.652 0.0 0.0)
		 (16.7359 0.0 0.0)
		 (15.8197 0.0 0.0)
		 (14.7142 0.0 0.0)
		 (13.2298 0.0 0.0)
		 (11.7454 0.0 0.0)
		 (10.261 0.0 0.0)
)